test_data/pfdelta/case14/n-1/raw/sample_1.json
{"network":{"bus":{"4":{"zone":1,"bus_i":4,"bus_type":1,"vmax":1.06,"source_id":["bus",4],"area":1,"vmin":0.94,"index":4,"va":0.0,"vm":1.0,"base_kv":1.0},"1":{"zone":1,"bus_i":1,"bus_type":3,"vmax":1.06,"source_id":["bus",1],"area":1,"vmin":0.94,"index":1,"va":0.0,"vm":1.0,"base_kv":1.0},"12":{"zone":1,"bus_i":12,"bus_type":1,"vmax":1.06,"source_id":["bus",12],"area":1,"vmin":0.94,"index":12,"va":0.0,"vm":1.0,"base_kv":1.0},"2":{"zone":1,"bus_i":2,"bus_type":2,"vmax":1.06,"source_id":["bus",2],"area":1,"vmin":0.94,"index":2,"va":0.0,"vm":1.0,"base_kv":1.0},"6":{"zone":1,"bus_i":6,"bus_type":2,"vmax":1.06,"source_id":["bus",6],"area":1,"vmin":0.94,"index":6,"va":0.0,"vm":1.0,"base_kv":1.0},"11":{"zone":1,"bus_i":11,"bus_type":1,"vmax":1.06,"source_id":["bus",11],"area":1,"vmin":0.94,"index":11,"va":0.0,"vm":1.0,"base_kv":1.0},"13":{"zone":1,"bus_i":13,"bus_type":1,"vmax":1.06,"source_id":["bus",13],"area":1,"vmin":0.94,"index":13,"va":0.0,"vm":1.0,"base_kv":1.0},"5":{"zone":1,"bus_i":5,"bus_type":1,"vmax":1.06,"source_id":["bus",5],"area":1,"vmin":0.94,"index":5,"va":0.0,"vm":1.0,"base_kv":1.0},"14":{"zone":1,"bus_i":14,"bus_type":1,"vmax":1.06,"source_id":["bus",14],"area":1,"vmin":0.94,"index":14,"va":0.0,"vm":1.0,"base_kv":1.0},"7":{"zone":1,"bus_i":7,"bus_type":1,"vmax":1.06,"source_id":["bus",7],"area":1,"vmin":0.94,"index":7,"va":0.0,"vm":1.0,"base_kv":1.0},"8":{"zone":1,"bus_i":8,"bus_type":2,"vmax":1.06,"source_id":["bus",8],"area":1,"vmin":0.94,"index":8,"va":0.0,"vm":1.0,"base_kv":1.0},"10":{"zone":1,"bus_i":10,"bus_type":1,"vmax":1.06,"source_id":["bus",10],"area":1,"vmin":0.94,"index":10,"va":0.0,"vm":1.0,"base_kv":1.0},"9":{"zone":1,"bus_i":9,"bus_type":1,"vmax":1.06,"source_id":["bus",9],"area":1,"vmin":0.94,"index":9,"va":0.0,"vm":1.0,"base_kv":1.0},"3":{"zone":1,"bus_i":3,"bus_type":1,"vmax":1.06,"source_id":["bus",3],"area":1,"vmin":0.94,"index":3,"va":0.0,"vm":1.0,"base_kv":1.0}},"source_type":"matpower","name":"pglib_opf_case14_ieee","dcline":{},"source_version":"2","gen":{"4":{"pg":0.0,"model":2,"shutdown":0.0,"startup":0.0,"qg":0.09,"gen_bus":6,"pmax":0.0,"vg":1.0,"mbase":100.0,"source_id":["gen",4],"index":4,"cost":[792.0951,0.0],"qmax":0.24,"gen_status":1,"qmin":-0.06,"pmin":0.0,"ncost":0},"1":{"pg":1.7,"model":2,"shutdown":0.0,"startup":0.0,"qg":0.05,"gen_bus":1,"pmax":3.4,"vg":1.0,"mbase":100.0,"source_id":["gen",1],"index":1,"cost":[2326.9494,0.0],"qmax":0.1,"gen_status":1,"qmin":0.0,"pmin":0.0,"ncost":2},"5":{"pg":0.0,"model":2,"shutdown":0.0,"startup":0.0,"qg":0.09,"gen_bus":8,"pmax":0.0,"vg":1.0,"mbase":100.0,"source_id":["gen",5],"index":5,"cost":[],"qmax":0.24,"gen_status":1,"qmin":-0.06,"pmin":0.0,"ncost":0},"2":{"pg":0.295,"model":2,"shutdown":0.0,"startup":0.0,"qg":0.0,"gen_bus":2,"pmax":0.59,"vg":1.0,"mbase":100.0,"source_id":["gen",2],"index":2,"cost":[],"qmax":0.3,"gen_status":1,"qmin":-0.3,"pmin":0.0,"ncost":2},"3":{"pg":0.0,"model":2,"shutdown":0.0,"startup":0.0,"qg":0.2,"gen_bus":3,"pmax":0.0,"vg":1.0,"mbase":100.0,"source_id":["gen",3],"index":3,"cost":[],"qmax":0.4,"gen_status":0,"qmin":0.0,"pmin":0.0,"ncost":0}},"branch":{"4":{"br_r":0.05811,"rate_a":1.58,"shift":0.0,"rate_b":1.58,"br_x":0.17632,"rate_c":1.58,"g_to":0.0,"g_fr":0.0,"source_id":["branch",4],"b_fr":0.017,"f_bus":2,"br_status":1,"t_bus":4,"b_to":0.017,"index":4,"angmin":-0.5235987755982988,"angmax":0.5235987755982988,"transformer":false,"tap":1.0},"1":{"br_r":0.01938,"rate_a":4.72,"shift":0.0,"rate_b":4.72,"br_x":0.05917,"rate_c":4.72,"g_to":0.0,"g_fr":0.0,"source_id":["branch",1],"b_fr":0.0264,"f_bus":1,"br_status":1,"t_bus":2,"b_to":0.0264,"index":1,"angmin":-0.5235987755982988,"angmax":0.5235987755982988,"transformer":false,"tap":1.0},"12":{"br_r":0.12291,"rate_a":1.04,"shift":0.0,"rate_b":1.04,"br_x":0.25581,"rate_c":1.04,"g_to":0.0,"g_fr":0.0,"source_id":["branch",12],"b_fr":0.0,"f_bus":6,"br_status":1,"t_bus":12,"b_to":0.0,"index":12,"angmin":-0.5235987755982988,"angmax":0.5235987755982988,"transformer":false,"tap":1.0},"20":{"br_r":0.17093,"rate_a":0.76,"shift":0.0,"rate_b":0.76,"br_x":0.34802,"rate_c":0.76,"g_to":0.0,"g_fr":0.0,"source_id":["branch",20],"b_fr":0.0,"f_bus":13,"br_status":1,"t_bus":14,"b_to":0.0,"index":20,"angmin":-0.5235987755982988,"angmax":0.5235987755982988,"transformer":false,"tap":1.0},"2":{"br_r":0.05403,"rate_a":1.28,"shift":0.0,"rate_b":1.28,"br_x":0.22304,"rate_c":1.28,"g_to":0.0,"g_fr":0.0,"source_id":["branch",2],"b_fr":0.0246,"f_bus":1,"br_status":1,"t_bus":5,"b_to":0.0246,"index":2,"angmin":-0.5235987755982988,"angmax":0.5235987755982988,"transformer":false,"tap":1.0},"6":{"br_r":0.06701,"rate_a":1.6,"shift":0.0,"rate_b":1.6,"br_x":0.17103,"rate_c":1.6,"g_to":0.0,"g_fr":0.0,"source_id":["branch",6],"b_fr":0.0064,"f_bus":3,"br_status":1,"t_bus":4,"b_to":0.0064,"index":6,"angmin":-0.5235987755982988,"angmax":0.5235987755982988,"transformer":false,"tap":1.0},"11":{"br_r":0.09498,"rate_a":1.34,"shift":0.0,"rate_b":1.34,"br_x":0.1989,"rate_c":1.34,"g_to":0.0,"g_fr":0.0,"source_id":["branch",11],"b_fr":0.0,"f_bus":6,"br_status":1,"t_bus":11,"b_to":0.0,"index":11,"angmin":-0.5235987755982988,"angmax":0.5235987755982988,"transformer":false,"tap":1.0},"13":{"br_r":0.06615,"rate_a":2.01,"shift":0.0,"rate_b":2.01,"br_x":0.13027,"rate_c":2.01,"g_to":0.0,"g_fr":0.0,"source_id":["branch",13],"b_fr":0.0,"f_bus":6,"br_status":1,"t_bus":13,"b_to":0.0,"index":13,"angmin":-0.5235987755982988,"angmax":0.5235987755982988,"transformer":false,"tap":1.0},"5":{"br_r":0.05695,"rate_a":1.61,"shift":0.0,"rate_b":1.61,"br_x":0.17388,"rate_c":1.61,"g_to":0.0,"g_fr":0.0,"source_id":["branch",5],"b_fr":0.0173,"f_bus":2,"br_status":1,"t_bus":5,"b_to":0.0173,"index":5,"angmin":-0.5235987755982988,"angmax":0.5235987755982988,"transformer":false,"tap":1.0},"15":{"br_r":0.0,"rate_a":2.67,"shift":0.0,"rate_b":2.67,"br_x":0.11001,"rate_c":2.67,"g_to":0.0,"g_fr":0.0,"source_id":["branch",15],"b_fr":0.0,"f_bus":7,"br_status":1,"t_bus":9,"b_to":0.0,"index":15,"angmin":-0.5235987755982988,"angmax":0.5235987755982988,"transformer":false,"tap":1.0},"16":{"br_r":0.03181,"rate_a":3.25,"shift":0.0,"rate_b":3.25,"br_x":0.0845,"rate_c":3.25,"g_to":0.0,"g_fr":0.0,"source_id":["branch",16],"b_fr":0.0,"f_bus":9,"br_status":1,"t_bus":10,"b_to":0.0,"index":16,"angmin":-0.5235987755982988,"angmax":0.5235987755982988,"transformer":false,"tap":1.0},"14":{"br_r":0.0,"rate_a":1.67,"shift":0.0,"rate_b":1.67,"br_x":0.17615,"rate_c":1.67,"g_to":0.0,"g_fr":0.0,"source_id":["branch",14],"b_fr":0.0,"f_bus":7,"br_status":1,"t_bus":8,"b_to":0.0,"index":14,"angmin":-0.5235987755982988,"angmax":0.5235987755982988,"transformer":false,"tap":1.0},"7":{"br_r":0.01335,"rate_a":6.64,"shift":0.0,"rate_b":6.64,"br_x":0.04211,"rate_c":6.64,"g_to":0.0,"g_fr":0.0,"source_id":["branch",7],"b_fr":0.0,"f_bus":4,"br_status":1,"t_bus":5,"b_to":0.0,"index":7,"angmin":-0.5235987755982988,"angmax":0.5235987755982988,"transformer":false,"tap":1.0},"8":{"br_r":0.0,"rate_a":1.41,"shift":0.0,"rate_b":1.41,"br_x":0.20912,"rate_c":1.41,"g_to":0.0,"g_fr":0.0,"source_id":["branch",8],"b_fr":0.0,"f_bus":4,"br_status":1,"t_bus":7,"b_to":0.0,"index":8,"angmin":-0.5235987755982988,"angmax":0.5235987755982988,"transformer":true,"tap":0.978},"17":{"br_r":0.12711,"rate_a":0.99,"shift":0.0,"rate_b":0.99,"br_x":0.27038,"rate_c":0.99,"g_to":0.0,"g_fr":0.0,"source_id":["branch",17],"b_fr":0.0,"f_bus":9,"br_status":1,"t_bus":14,"b_to":0.0,"index":17,"angmin":-0.5235987755982988,"angmax":0.5235987755982988,"transformer":false,"tap":1.0},"10":{"br_r":0.0,"rate_a":1.17,"shift":0.0,"rate_b":1.17,"br_x":0.25202,"rate_c":1.17,"g_to":0.0,"g_fr":0.0,"source_id":["branch",10],"b_fr":0.0,"f_bus":5,"br_status":1,"t_bus":6,"b_to":0.0,"index":10,"angmin":-0.5235987755982988,"angmax":0.5235987755982988,"transformer":true,"tap":0.932},"19":{"br_r":0.22092,"rate_a":0.99,"shift":0.0,"rate_b":0.99,"br_x":0.19988,"rate_c":0.99,"g_to":0.0,"g_fr":0.0,"source_id":["branch",19],"b_fr":0.0,"f_bus":12,"br_status":1,"t_bus":13,"b_to":0.0,"index":19,"angmin":-0.5235987755982988,"angmax":0.5235987755982988,"transformer":false,"tap":1.0},"9":{"br_r":0.0,"rate_a":0.53,"shift":0.0,"rate_b":0.53,"br_x":0.55618,"rate_c":0.53,"g_to":0.0,"g_fr":0.0,"source_id":["branch",9],"b_fr":0.0,"f_bus":4,"br_status":1,"t_bus":9,"b_to":0.0,"index":9,"angmin":-0.5235987755982988,"angmax":0.5235987755982988,"transformer":true,"tap":0.969},"18":{"br_r":0.08205,"rate_a":1.41,"shift":0.0,"rate_b":1.41,"br_x":0.19207,"rate_c":1.41,"g_to":0.0,"g_fr":0.0,"source_id":["branch",18],"b_fr":0.0,"f_bus":10,"br_status":1,"t_bus":11,"b_to":0.0,"index":18,"angmin":-0.5235987755982988,"angmax":0.5235987755982988,"transformer":false,"tap":1.0},"3":{"br_r":0.04699,"rate_a":1.45,"shift":0.0,"rate_b":1.45,"br_x":0.19797,"rate_c":1.45,"g_to":0.0,"g_fr":0.0,"source_id":["branch",3],"b_fr":0.0219,"f_bus":2,"br_status":1,"t_bus":3,"b_to":0.0219,"index":3,"angmin":-0.5235987755982988,"angmax":0.5235987755982988,"transformer":false,"tap":1.0}},"storage":{},"switch":{},"baseMVA":100.0,"per_unit":true,"shunt":{"1":{"source_id":["bus",9],"shunt_bus":9,"status":1,"gs":0.0,"bs":0.19,"index":1}},"load":{"4":{"source_id":["bus",5],"load_bus":5,"status":1,"qd":0.004466727036338505,"pd":0.018511207199530765,"index":4},"1":{"source_id":["bus",2],"load_bus":2,"status":1,"qd":0.03916118347464131,"pd":0.2712606972828634,"index":1},"2":{"source_id":["bus",3],"load_bus":3,"status":1,"qd":0.0005338575626942421,"pd":0.40063008754504187,"index":2},"6":{"source_id":["bus",9],"load_bus":9,"status":1,"qd":0.18789383482165462,"pd":0.2713137916024675,"index":6},"11":{"source_id":["bus",14],"load_bus":14,"status":1,"qd":0.06904054734337575,"pd":0.07655798046145303,"index":11},"5":{"source_id":["bus",6],"load_bus":6,"status":1,"qd":0.19476490022280055,"pd":0.28247924942768715,"index":5},"7":{"source_id":["bus",10],"load_bus":10,"status":1,"qd":0.3339618165215469,"pd":0.7141947060337855,"index":7},"8":{"source_id":["bus",11],"load_bus":11,"status":1,"qd":0.2883590806466353,"pd":0.4189578019372036,"index":8},"10":{"source_id":["bus",13],"load_bus":13,"status":1,"qd":0.10687548803293656,"pd":0.4427497403969366,"index":10},"9":{"source_id":["bus",12],"load_bus":12,"status":1,"qd":0.13683617412878174,"pd":0.44179354763495304,"index":9},"3":{"source_id":["bus",4],"load_bus":4,"status":1,"qd":0.2564176228121772,"pd":0.47640185130750007,"index":3}}},"solution":{"solve_time":0.530026912689209,"optimizer":"Ipopt","termination_status":"LOCALLY_SOLVED","dual_status":"FEASIBLE_POINT","primal_status":"FEASIBLE_POINT","objective":8519.016941550728,"solution":{"baseMVA":100.0,"branch":{"4":{"qf":0.33535206862111394,"qt":-0.18644032269433453,"pt":-0.9496140137357849,"pf":1.0099037771061181},"1":{"qf":-0.4693033900783725,"qt":0.7155240713281077,"pt":-2.266309559726574,"pf":2.3662151814335544},"12":{"qf":0.1896172714876176,"qt":-0.1519230351972774,"pt":-0.3419035347845223,"pf":0.3600146273236948},"20":{"qf":0.15870379853833969,"qt":-0.14800852969926115,"pt":0.07741461085143067,"pf":-0.07216163026794815},"2":{"qf":0.3130782679591198,"qt":-0.007402163603547426,"pt":-1.208607775560237,"pf":1.2948085355199508},"6":{"qf":0.13462754930933343,"qt":-0.13121983983975213,"pt":-0.2551474077615685,"pf":0.26118411678417963},"11":{"qf":0.5106656884124635,"qt":-0.43766979035005504,"pt":-0.35447463871665336,"pf":0.389332106780844},"13":{"qf":0.2904972312507981,"qt":-0.2526397849697793,"pt":-0.4728515202850492,"pf":0.49207521009459354},"5":{"qf":0.30867795123186526,"qt":-0.20146264653869356,"pt":-0.8450958150279121,"pf":0.8916549880084766},"15":{"qf":0.3014600706239801,"qt":-0.21955202101066829,"pt":-0.7920051580853982,"pf":0.7920051580853982},"16":{"qf":0.2572464664739588,"qt":-0.1905291797147378,"pt":-0.7811889114846001,"pf":0.8063046143462653},"14":{"qf":-0.43426541443913996,"qt":0.46870613110949744,"pt":0.0,"pf":1.9476479199834913e-37},"7":{"qf":-0.0498475185393647,"qt":0.06204606556605601,"pt":0.5112911897617985,"pf":-0.5074239230126587},"8":{"qf":0.007015958921086822,"qt":0.1328053438151599,"pt":-0.7920051580853982,"pf":0.7920051580853982},"17":{"qf":-0.07004998178551892,"qt":0.0789679823558854,"pt":-0.1539725913128837,"pf":0.1581650872537793},"19":{"qf":0.015086861068495643,"qt":-0.012939501601496971,"pt":0.10226341015606076,"pf":-0.09989001285043077},"10":{"qf":0.14235201753984647,"qt":0.41765182297457676,"pt":-1.5239011936268194,"pf":1.5239011936268194},"9":{"qf":0.10407409934018731,"qt":0.016834458650215482,"pt":-0.44377833511711395,"pf":0.44377833511711395},"18":{"qf":-0.1434326368068091,"qt":0.1493107097034198,"pt":-0.06448316322055023,"pf":0.06699420545081461},"3":{"qf":0.18089852233594342,"qt":-0.13516140687202768,"pt":-0.6618142043292214,"pf":0.6834901064914478}},"gen":{"4":{"qg":1.6031969143482565,"pg":0.0},"1":{"qg":-0.15622512211925274,"pg":3.661023716953505},"5":{"qg":0.46870613110949744,"pg":0.0},"2":{"qg":1.5796137969916715,"pg":0.59}},"multiinfrastructure":false,"multinetwork":false,"bus":{"4":{"va":-0.29266144759916946,"vm":0.9473163157336078},"1":{"va":1.1283737281415155e-38,"vm":1.06},"12":{"va":-0.6970965335674245,"vm":0.9746578000458639},"2":{"va":-0.13376346238579928,"vm":1.0506651005722365},"6":{"va":-0.6304641374240625,"vm":1.06},"11":{"va":-0.659829972244497,"vm":0.9296931337461913},"13":{"va":-0.673057031819743,"vm":0.9944926606216656},"5":{"va":-0.269822451270285,"vm":0.9569325407975798},"14":{"va":-0.617896968420511,"vm":0.9528067455951648},"7":{"va":-0.46765650983250345,"vm":0.9821107767611724},"8":{"va":-0.46765650983250345,"vm":1.06},"10":{"va":-0.6305423653058482,"vm":0.9049253154101078},"9":{"va":-0.5609329859174926,"vm":0.9524836154127312},"3":{"va":-0.2550392822174533,"vm":0.9887179544710759}},"per_unit":true},"objective_lb":null}}